FoamFile { version 2.0; format ascii; class dictionary; object topoSetDict; }
actions
(
    { name halfDomain; type cellSet; action new; source boxToCell;
      min (-6.0 0.0 -0.1); max (20.0 2.1 3.0); }
);
