FoamFile
{
    version     2.0;
    format      ascii;
    class       dictionary;
    object      surfaceFeatureExtractDict;
}

ahmed_domain.stl
{
    extractionMethod    extractFromSurface;

    extractFromSurfaceCoeffs
    {
        includedAngle   150;  // edges sharper than 30° (180-150) are features
    }

    writeSurfaceMeshSets  no;
    writeFeatureEdgeMesh  yes;
}
