FoamFile { version 2.0; format ascii; class dictionary; object snappyHexMeshDict; }
castellatedMesh true;
snap            true;
addLayers       true;
mergeTolerance  1e-6;

geometry
{
    ahmed_body_hq.stl
    {
        type triSurfaceMesh;
        name ahmed_body;
    }
    wakeBox   { type searchableBox; min (0.0   0.00 0.0);  max (3.60  0.40 0.60); }
    nearBody  { type searchableBox; min (-0.40 0.00 0.0);  max (1.44  0.30 0.50); }
    slantWake { type searchableBox; min (0.65  0.00 0.13); max (1.55  0.25 0.43); }
    frontFoot { type searchableBox; min (0.140 0.050 0.000); max (0.260 0.145 0.075); }
    rearFoot  { type searchableBox; min (0.794 0.050 0.000); max (0.914 0.145 0.075); }
}

castellatedMeshControls
{
    maxLocalCells       8000000;
    maxGlobalCells      16000000;
    minRefinementCells  10;
    nCellsBetweenLevels 3;
    features ( { file "ahmed_body_hq.eMesh"; level 3; } );
    refinementSurfaces
    {
        ahmed_body { level (5 5); patchInfo { type wall; } }
    }
    refinementRegions
    {
        nearBody  { mode inside; levels ((1E15 5)); }
        wakeBox   { mode inside; levels ((1E15 4)); }
        slantWake { mode inside; levels ((1E15 6)); }
        frontFoot { mode inside; levels ((1E15 6)); }
        rearFoot  { mode inside; levels ((1E15 6)); }
    }
    resolveFeatureAngle     30;
    locationInMesh          (5.0 0.15 0.5);
    allowFreeStandingZoneFaces true;
}

snapControls
{
    nSmoothPatch 5; tolerance 2.0; nSolveIter 50; nRelaxIter 8;
    implicitFeatureSnap false; explicitFeatureSnap true; multiRegionFeatureSnap false;
}

addLayersControls
{
    relativeSizes        false;
    firstLayerThickness  9.3e-6;
    expansionRatio       1.2;
    minThickness         1e-7;
    layers
    {
        ahmed_body { nSurfaceLayers 15; }
        ground     { nSurfaceLayers 8; }
    }
    nGrow 0; featureAngle 100; nRelaxIter 5;
    nSmoothSurfaceNormals 1; nSmoothNormals 3; nSmoothThickness 10;
    maxFaceThicknessRatio 0.5; maxThicknessToMedialRatio 0.6;
    minMedialAxisAngle 90; nBufferCellsNoExtrude 0; nLayerIter 50; nRelaxedIter 20;
}

meshQualityControls
{
    maxNonOrtho 65; maxBoundarySkewness 20; maxInternalSkewness 4;
    maxConcave 80; minVol 1e-13; minTetQuality 1e-30; minArea -1;
    minTwist 0.02; minDeterminant 0.001; minFaceWeight 0.05;
    minVolRatio 0.01; minTriangleTwist -1; nSmoothScale 4; errorReduction 0.75;
    relaxed { maxNonOrtho 75; minFaceWeight 0.05; }
}
