FoamFile { version 2.0; format ascii; class dictionary; object fvSolution; }
solvers
{
    p
    {
        solver          PCG;
        preconditioner
        {
            preconditioner  GAMG;
            tolerance       1e-8;
            relTol          0.0;
            nVcycles        2;
            smoother        GaussSeidel;
            nPreSweeps      0;
            nPostSweeps     2;
            cacheAgglomeration false;
            nCellsInCoarsestLevel 10;
            agglomerator    faceAreaPair;
            mergeLevels     1;
        }
        tolerance       1e-6;
        relTol          0.01;
        minIter         3;
    }
    Phi { $p; }
    "(U|k|epsilon)"
    {
        solver          smoothSolver;
        smoother        GaussSeidel;
        tolerance       1e-8;
        relTol          0.1;
    }
}
SIMPLE
{
    nNonOrthogonalCorrectors 1;
    consistent      yes;
    residualControl { p 1e-5; U 1e-5; "(k|epsilon)" 1e-4; }
}
potentialFlow { nNonOrthogonalCorrectors 4; }
relaxationFactors { equations { ".*" 0.7; } }
cache { grad(U); }
