FoamFile { version 2.0; format ascii; class volScalarField; object nut; }
dimensions      [0 2 -1 0 0 0 0];
internalField   uniform 0;
boundaryField
{
    inlet           { type calculated; value uniform 0; }
    outlet          { type calculated; value uniform 0; }
    ground          { type nutkWallFunction; value uniform 0; }
    top             { type slip; }
    side1           { type slip; }
    side2           { type slip; }
    ahmed_body      { type nutkWallFunction; value uniform 0; }
    defaultFaces    { type slip; }
}
