FoamFile { version 2.0; format ascii; class volScalarField; object omega; }
dimensions      [0 0 -1 0 0 0 0];
internalField   uniform 1000.0;
boundaryField
{
    inlet           { type fixedValue; value uniform 1000.0; }
    outlet          { type inletOutlet; inletValue uniform 1000.0; value uniform 1000.0; }
    ground          { type omegaWallFunction; value uniform 1000.0; }
    top             { type zeroGradient; }
    side1           { type zeroGradient; }
    side2           { type zeroGradient; }
    ahmed_body      { type omegaWallFunction; value uniform 1000.0; }
    defaultFaces    { type zeroGradient; }
}
