FoamFile { version 2.0; format ascii; class volScalarField; object p; }
dimensions      [0 2 -2 0 0 0 0];
internalField   uniform 0;
boundaryField
{
    inlet           { type zeroGradient; }
    outlet          { type fixedValue; value uniform 0; }
    ground          { type zeroGradient; }
    top             { type slip; }
    side1           { type slip; }
    side2           { type slip; }
    ahmed_body      { type zeroGradient; }
    defaultFaces    { type zeroGradient; }
}
